Completed: ngspice -b -r /foss/simulations/gummel_bipolar.raw /foss/simulations/gummel_bipolar.spice
stderr:
Note: Starting dynamic gmin stepping
Note: Dynamic gmin stepping completed

Warning: command 'plot' is not available during batch simulation, ignored!
    You may use Gnuplot instead.


Warning: command 'plot' is not available during batch simulation, ignored!
    You may use Gnuplot instead.


Warning: command 'plot' is not available during batch simulation, ignored!
    You may use Gnuplot instead.

data:

Note: No compatibility mode selected!


Circuit: ** sch_path: /foss/designs/simu_test/gummel_bipolar.sch

Doing analysis at TEMP = 27.000000 and TNOM = 27.000000

Using SPARSE 1.3 as Direct Linear Solver

No. of Data Rows : 39
binary raw file "/foss/simulations/gummel_bipolar.raw"
Doing analysis at TEMP = 27.000000 and TNOM = 27.000000

Using SPARSE 1.3 as Direct Linear Solver

Total analysis time (seconds) = 0.00159871

Total elapsed time (seconds) = 0.020 

Total DRAM available = 7426.344 MB.
DRAM currently available = 1495.141 MB.
Maximum ngspice program size =   25.000 MB.
Current ngspice program size =   12.629 MB.

Shared ngspice pages =   10.219 MB.
Text (code) pages =    5.559 MB.
Stack = 0 bytes.
Library pages =    2.570 MB.

